packages/bdgd2opendss/bdgd2opendss-1.0.0.tar.gz/bdgd2opendss-1.0.0/tests/dss_models_output/sub__SE001/18_SE001_1/ReguladorMT_202312598_18_SE001_1_------1-----.dss
New "Transformer.REG_23_1A" phases=2 windings=2 buses=["809191.1.2" "RT755621.1.2"] conns=[Delta Delta ] kvs=[23.1 23.1] kvas=[288 288] xhl=0.13 %loadloss=1.34375 %noloadloss=0.2708333333333333
New "Regcontrol.REG_23_1A" transformer="REG_23_1A" winding=2 vreg=100.0 band=2 ptratio=231.0 

New "Transformer.REG_23_1B" phases=2 windings=2 buses=["809191.2.3" "RT755621.2.3"] conns=[Delta Delta ] kvs=[23.1 23.1] kvas=[288 288] xhl=0.13 %loadloss=1.34375 %noloadloss=0.2708333333333333
New "Regcontrol.REG_23_1B" transformer="REG_23_1B" winding=2 vreg=100.0 band=2 ptratio=231.0 

New "Transformer.REG_23_1C" phases=2 windings=2 buses=["809191.3.1" "RT755621.3.1"] conns=[Delta Delta ] kvs=[23.1 23.1] kvas=[288 288] xhl=0.13 %loadloss=1.34375 %noloadloss=0.2708333333333333
New "Regcontrol.REG_23_1C" transformer="REG_23_1C" winding=2 vreg=100.0 band=2 ptratio=231.0 

New "Transformer.REG_18_9715A" phases=2 windings=2 buses=["790502.2.3" "RT88701.2.3"] conns=[Delta Delta ] kvs=[23.1 23.1] kvas=[288 288] xhl=0.13 %loadloss=1.1339270833333333 %noloadloss=0.2701388888888889
New "Regcontrol.REG_18_9715A" transformer="REG_18_9715A" winding=2 vreg=100.0 band=2 ptratio=231.0 

New "Transformer.REG_18_9715B" phases=2 windings=2 buses=["790502.3.1" "RT88701.3.1"] conns=[Delta Delta ] kvs=[23.1 23.1] kvas=[288 288] xhl=0.13 %loadloss=1.1339270833333333 %noloadloss=0.2701388888888889
New "Regcontrol.REG_18_9715B" transformer="REG_18_9715B" winding=2 vreg=100.0 band=2 ptratio=231.0 

New "Transformer.REG_18_9715C" phases=2 windings=2 buses=["790502.1.2" "RT88701.1.2"] conns=[Delta Delta ] kvs=[23.1 23.1] kvas=[288 288] xhl=0.13 %loadloss=1.1339270833333333 %noloadloss=0.2701388888888889
New "Regcontrol.REG_18_9715C" transformer="REG_18_9715C" winding=2 vreg=100.0 band=2 ptratio=231.0 

New "Transformer.REG_23_9708A" phases=2 windings=2 buses=["809151.1.2" "RT759661.1.2"] conns=[Delta Delta ] kvs=[23.1 23.1] kvas=[288 288] xhl=0.13 %loadloss=1.1339270833333333 %noloadloss=0.2701388888888889
New "Regcontrol.REG_23_9708A" transformer="REG_23_9708A" winding=2 vreg=100.0 band=2 ptratio=231.0 

New "Transformer.REG_23_9708B" phases=2 windings=2 buses=["809151.2.3" "RT759661.2.3"] conns=[Delta Delta ] kvs=[23.1 23.1] kvas=[288 288] xhl=0.13 %loadloss=1.1339270833333333 %noloadloss=0.2701388888888889
New "Regcontrol.REG_23_9708B" transformer="REG_23_9708B" winding=2 vreg=100.0 band=2 ptratio=231.0 

New "Transformer.REG_23_9708C" phases=2 windings=2 buses=["809151.3.1" "RT759661.3.1"] conns=[Delta Delta ] kvs=[23.1 23.1] kvas=[288 288] xhl=0.13 %loadloss=1.1339270833333333 %noloadloss=0.2701388888888889
New "Regcontrol.REG_23_9708C" transformer="REG_23_9708C" winding=2 vreg=100.0 band=2 ptratio=231.0 

